9
Properties=species:S:1:pos:R:3:masses:R:1 calc="_JSON {\"xc\": \"WB97X-D3\", \"basis\": \"def2-TZVP\", \"package\": \"nwchem\"}" symmetry_number=1 freqs="76.03 99.91 112.15 156.46 230.43 487.22 628.54 792.06 842.11 969.96 1146.85 1158.3 1385.34 1465.05 1500.61 1509.36 1663.85 2316.78 3078.12 3162.53 3168.46" zpe=1.608702400270227 energy=-8636.504315382983 pbc="F F F"
C       -1.65388028      -0.21767458       0.30247498      12.00000000
C        0.69327002      -0.23898162      -0.55783877      12.00000000
N       -0.31802893      -0.57550185      -0.06052793      14.00307000
O        2.55407425       0.86067069       0.72049088      15.99491000
N        2.82521687       0.55830905      -0.39635364      14.00307000
N        1.78208234      -0.02102609      -1.14697239      14.00307000
H       -1.79174728      -0.39544703       1.36767880       1.00783000
H       -1.85368146       0.83017809       0.07836402       1.00783000
H       -2.35092852      -0.84858367      -0.24730295       1.00783000
