6
Properties=species:S:1:pos:R:3:masses:R:1 calc="_JSON {\"xc\": \"WB97X-D3\", \"basis\": \"def2-TZVP\", \"package\": \"nwchem\"}" symmetry_number=1 freqs="16.33 53.9 78.32 85.16 630.7 633.23 800.15 818.54 1365.83 2238.33 2423.48 3440.63" zpe=0.7801457652774129 energy=-7567.84521238267 pbc="F F F"
O       -0.52876160      -1.23779736       0.01935056      15.99491000
C        1.62874079       1.34529097       0.33855613      12.00000000
N        2.25416237       2.29438808       0.46695973      14.00307000
N       -2.77756268      -1.54793930       0.33684021      14.00307000
N       -1.68635166      -1.39485218       0.18345253      14.00307000
H        1.03930778       0.45967679       0.22026384       1.00783000
