6
Properties=species:S:1:pos:R:3:masses:R:1 calc="_JSON {\"xc\": \"WB97X-D3\", \"basis\": \"def2-TZVP\", \"package\": \"nwchem\"}" symmetry_number=1 freqs="179.69 266.06 527.01 632.3 861.46 1002.15 1044.62 1275.5 1413.13 1808.7 2360.54 3075.37" zpe=0.8955707136065593 energy=-7568.558992632051 pbc="F F F"
O        0.74676936      -1.30131253      -0.09177197      15.99491000
C        0.92317938      -0.13813164       0.12907126      12.00000000
N       -0.07627845       0.80424531       0.43612441      14.00307000
N       -1.22242182       0.31505901       0.46422991      14.00307000
N       -2.27452685      -0.03442249       0.51052583      14.00307000
H        1.90327824       0.35456235       0.12072510       1.00783000
