9
Properties=species:S:1:pos:R:3:masses:R:1 calc="_JSON {\"xc\": \"WB97X-D3\", \"basis\": \"def2-TZVP\", \"package\": \"nwchem\"}" symmetry_number=1 freqs="110.17 193.07 197.25 268.57 369.36 566.92 590.73 624.43 824.79 993.38 1059.49 1251.6 1398.26 1430.7 1473.69 1500.8 1587.06 2277.23 3074.25 3143.21 3172.29" zpe=1.618443218738676 energy=-8636.492885243415 pbc="F F F"
C       -1.01078330      -0.01140629      -0.06095036      12.00000000
C        0.47797759       0.01913727       0.01389809      12.00000000
N        1.29737856      -0.99295119       0.46925282      14.00307000
O        0.69281380      -1.98447212       0.83374563      15.99491000
N        1.74560549       1.97013284      -0.69764202      14.00307000
N        1.16419833       1.07626945      -0.37161078      14.00307000
H       -1.40204563       0.91336263      -0.48214910       1.00783000
H       -1.33267002      -0.84990532      -0.68032037       1.00783000
H       -1.43288383      -0.15535928       0.93492709       1.00783000
